*Heading
** Job name: Job-1 Model name: Model-1
** Generated by: Abaqus/CAE 6.14-4
*Preprint, echo=NO, model=NO, history=NO, contact=NO
**
** PARTS
**
*Part, name=Part-1
*Node
      1,          80.,          20.,          20.
      2,          80.,          15.,          20.
      3,          80.,          10.,          20.
      4,          80.,           5.,          20.
      5,          80.,           0.,          20.
      6,          80.,          20.,          15.
      7,          80.,          15.,          15.
      8,          80.,          10.,          15.
      9,          80.,           5.,          15.
     10,          80.,           0.,          15.
     11,          80.,          20.,          10.
     12,          80.,          15.,          10.
     13,          80.,          10.,          10.
     14,          80.,           5.,          10.
     15,          80.,           0.,          10.
     16,          80.,          20.,           5.
     17,          80.,          15.,           5.
     18,          80.,          10.,           5.
     19,          80.,           5.,           5.
     20,          80.,           0.,           5.
** ... 405 like lines cut
*Element, type=C3D8
  1,  26,  27,  32,  31,   1,   2,   7,   6
  2,  27,  28,  33,  32,   2,   3,   8,   7
  3,  28,  29,  34,  33,   3,   4,   9,   8
  4,  29,  30,  35,  34,   4,   5,  10,   9
  5,  31,  32,  37,  36,   6,   7,  12,  11
  6,  32,  33,  38,  37,   7,   8,  13,  12
  7,  33,  34,  39,  38,   8,   9,  14,  13
  8,  34,  35,  40,  39,   9,  10,  15,  14
  9,  36,  37,  42,  41,  11,  12,  17,  16
 10,  37,  38,  43,  42,  12,  13,  18,  17
 11,  38,  39,  44,  43,  13,  14,  19,  18
 12,  39,  40,  45,  44,  14,  15,  20,  19
 13,  41,  42,  47,  46,  16,  17,  22,  21
 14,  42,  43,  48,  47,  17,  18,  23,  22
 15,  43,  44,  49,  48,  18,  19,  24,  23
 16,  44,  45,  50,  49,  19,  20,  25,  24
 17,  51,  52,  57,  56,  26,  27,  32,  31
 18,  52,  53,  58,  57,  27,  28,  33,  32
 19,  53,  54,  59,  58,  28,  29,  34,  33
 20,  54,  55,  60,  59,  29,  30,  35,  34
** ... 236 like lines cut
*Nset, nset=Set-1, generate
   1,  425,    1
*Elset, elset=Set-1, generate
   1,  256,    1
** Section: Section-1
*Solid Section, elset=Set-1, material=Material-1
,
*End Part
**  
**
** ASSEMBLY
**
*Assembly, name=Assembly
**  
*Instance, name=Part-1-1, part=Part-1
*End Instance
**  
*Nset, nset=Set-1, instance=Part-1-1, generate
 401,  425,    1
*Elset, elset=Set-1, instance=Part-1-1, generate
 241,  256,    1
*Nset, nset=Set-2, instance=Part-1-1
 5,
*Nset, nset=Set-3, instance=Part-1-1
 1,
*Nset, nset=Set-4, instance=Part-1-1, generate
 1,  5,  1
*End Assembly
** 
** MATERIALS
** 
*Material, name=Material-1
*Density
7800.,
*Elastic
210000., 0.3
** ----------------------------------------------------------------
** 
** STEP: Step-1
** 
*Step, name=Step-1, nlgeom=NO
*Static
1., 1., 1e-05, 1.
** 
** BOUNDARY CONDITIONS
** 
** Name: BC-1 Type: Displacement/Rotation
*Boundary
Set-1, 1, 1
Set-1, 2, 2
Set-1, 3, 3
** 
** LOADS
** 
** Name: Load-1   Type: Concentrated force
*Cload
Set-4, 3, -50.
** 
** OUTPUT REQUESTS
** 
*Restart, write, frequency=0
** 
** FIELD OUTPUT: F-Output-1
** 
*Output, field, variable=PRESELECT
** 
** HISTORY OUTPUT: H-Output-1
** 
*Output, history, variable=PRESELECT
*End Step
